          MACRO
&NAME     @    &COMMENT
.**********************************************************************
.*COPYRIGHT GESELLSCHAFT FUER MATHEMATIK UNF DATENVERARBEITUNG MBH 1985
.*LICENSED MATERIAL --- PROGRAM PROPERTY OF GMD-Z1.BN
.**********************************************************************
         SASLIST MACRO,'@'
&NAME     DS   0H
.MEND    SASLIST MACEND
          MEND
